 108
 Liquid Argon in 17.1580 \AA cubic box
 Ar     6.67103294321331       -10.6146871435653        12.6336939877734     
 Ar     1.06574058650169       -3.33432278188177       -2.59038677851747     
 Ar    -1.78412295775301       -16.5259458407765        4.61680014503288     
 Ar     9.81030288841332       -5.82405963687712        3.65645974729484     
 Ar     15.3247211142637       -4.78053306974291        8.26672732196501     
 Ar     2.11253838645732       -4.72955953073222        6.75738627120688     
 Ar    -4.56209227856753       -3.20329426260617        5.55255473461665     
 Ar     5.86663918205102       -10.4139411857802        1.86416360433577     
 Ar     5.21527405147765       -28.9277726235844        6.19270143781154     
 Ar     13.7051046236876       -4.97120493339350        1.94629699552930     
 Ar     4.19613239880890       -14.9790822892036        16.5333880558744     
 Ar     16.7521502712298       -10.0804241645332        14.5028498925954     
 Ar     12.6350229329042       -1.40635636262803        2.38627163152721     
 Ar    -1.08439966554446        2.41557722385393        8.37791671838088     
 Ar     8.96146834305310       -19.0272834036820        4.05806985477701     
 Ar     11.1459036450055        3.18552372924961       6.723294858788574E-002
 Ar     16.0690989728094       -1.03744620980343        18.5655733607861     
 Ar     18.6984479366938       -17.6491643729990        3.60417710784249     
 Ar    -3.13161415889863       -6.75371567663538        5.00611042020118     
 Ar     17.4072659061416       -7.88472086048433        7.56603710600785     
 Ar     19.6499870844957       -10.2813545329547        3.47269993677700     
 Ar     9.14358801056816        10.5769423320094        11.0434815971320     
 Ar     12.3852978120607       -11.0158733347720        20.0337606688683     
 Ar     6.18023614761844       -4.34746306558901        5.42729289210231     
 Ar    0.436403345315857       -1.36655907890507        7.37333479343561     
 Ar   -0.920905510346089       -3.30961460032849        21.5616988921137     
 Ar     3.31118739595332       -20.7760460532019        20.3172712920931     
 Ar    0.507105497066932       -21.6567949737129       0.933840061914709     
 Ar     14.4213709093942       -20.3431287076219        15.4309530884964     
 Ar     5.56191131389967       -7.25872501357231        12.4568959982054     
 Ar     3.06146523952825       -14.4087233421704        6.69325558343884     
 Ar    -1.37943237515652       -10.1053635146924        4.64502788848255     
 Ar     7.52415338992668       -14.4733254864890        18.7673317352093     
 Ar    -5.87703921849131        1.37272405947699        13.4338857916159     
 Ar    0.830260163129983        5.33087087306913        11.0816141860704     
 Ar     2.70133951013669       -18.7636102294181       0.120055694867087     
 Ar     9.27050983701818       -10.9072106043863       0.889331660756358     
 Ar     9.08594738166258       -17.5221802255344       0.686386365370126     
 Ar     5.25139950502609       -17.4969690646468        19.3171785990622     
 Ar     13.2681025537439       -13.8523638332393        5.66497231845133     
 Ar     15.2101790729727        2.32029736635329        11.6969471206408     
 Ar     11.2744379312723       -3.31524720571622        9.80174695909147     
 Ar     11.3672221692278       -7.00573339367229      -8.863893204687781E-002
 Ar     12.6807143612004      -0.189603658778157        16.3325462080353     
 Ar     13.1935341627820       -1.62543720726316        29.5955788172380     
 Ar     15.3745579360649       -22.0045244935217       -4.92637554192936     
 Ar     16.4280280206508       -8.26617967392137        11.4518786798574     
 Ar     17.8237371703412       -15.2862663598538        17.6996045132077     
 Ar     13.0641438321788       -10.8486456984713        16.0847503564452     
 Ar     7.73638629377528        1.84526543149574        15.1833781698611     
 Ar     10.2571128578188       -11.9445746958196        14.2192606487898     
 Ar     3.77699860251963        2.92447970812240        2.90610322685796     
 Ar     9.87198946567047       -1.85194776144305        14.3336221929169     
 Ar     9.34121495781715      -0.110266095177049        10.2421994884800     
 Ar     6.42953094552702       -11.9658267479721       -1.27607222782124     
 Ar    0.312075928567517       -13.5209321587520        4.30576572830279     
 Ar     21.8849306695113       -8.32941966975701        15.7831238633949     
 Ar    -1.73962014751743       -6.92520932653883        15.0877890024375     
 Ar     15.3258711078380       -10.9370636474509        8.75014860388744     
 Ar     5.62898476019133        1.22206410978867        9.13368454732895     
 Ar     4.36630448913605       -7.17908827942928        2.46370171331934     
 Ar     6.36905055137017       2.140177685278017E-002   12.4806258246867     
 Ar    -8.24590606548181       -8.40492557103603        14.5774496555802     
 Ar     6.39507074174614       -8.93453582347402        9.13184152048137     
 Ar     3.17311027831434       -10.4109670230052        13.4136189406149     
 Ar     8.55871765808877       -11.5146971263885        4.70680651719831     
 Ar     3.77957617856256       -5.11519004071282      -0.633083143544725     
 Ar     3.82062013524474       -1.20262776483639        6.23531431086906     
 Ar     4.25706748939141       -3.63430271674530        13.2690508392963     
 Ar     1.92348687154464        5.96702632661158        7.62724137297314     
 Ar     12.0051777788663       -13.8263585530837        9.18079560803348     
 Ar     15.0453466485826       -14.2605922098574        15.3530811864134     
 Ar     24.4805821494876       -4.72207741599974       -1.99596985109394     
 Ar     19.4767646609806        1.77442931216133        10.3617496397394     
 Ar     11.9756015797765       -5.07615768419422        13.6907379724847     
 Ar     13.9394476435385        5.54214528144574       -5.00708130293960     
 Ar     17.2465568292747       -1.41716902620044        10.9507552983048     
 Ar     16.5494040530701      -0.264088515793768        15.1391134707549     
 Ar     8.16231980799074        9.84631749751864       0.796210036557643     
 Ar     8.40323357518367        3.35027973039626        11.5913687598978     
 Ar     23.3498272041744       -1.40692495029280        15.9949128751187     
 Ar     7.23312060426592       -2.05938049655674        7.98702327070333     
 Ar     1.04256284786092       -8.15292748227513        17.2074386421529     
 Ar     3.01310260723471       -11.5097160369980        16.8994512032187     
 Ar     6.88649054507511       -8.15930685942754        4.82906099336082     
 Ar     5.06237451942686       -12.2934797858039        9.79914937310931     
 Ar     16.6129272937896       -11.8133622739936        18.3417827366773     
 Ar     2.69214517473574       -8.28564119894275        10.4601950916785     
 Ar     2.79781292393336       0.114875238778070        13.8206239519260     
 Ar     7.62268397733944       -3.17673280498871       -5.53083875591493     
 Ar     1.50744766634734       -13.8205771069070        13.9164676875935     
 Ar     6.67307640084798       -16.0925383485583        5.25789452573394     
 Ar     10.4390555563715       -16.6707469563248        6.91799417023151     
 Ar     5.62891628767610       -5.22859253372635        9.43277399195221     
 Ar     14.1634497645406       -14.5361596069532        19.0790815297552     
 Ar     10.6505276709263       -3.69963830907047        17.6508669507771     
 Ar     3.70250355408209       -7.94643191534542        6.34294974462814     
 Ar     8.29060739488461        3.39283070761242        24.9724714610759     
 Ar     6.79682924336071       -20.9921316604048        1.41649721746698     
 Ar     19.1829730396108       -6.67133198675445        13.8686185773761     
 Ar     9.15960737692621        11.8185252568240        24.7562364347319     
 Ar     22.0227224042279       -13.7415388017328        13.2127365927663     
 Ar     18.6458829445424       -4.67218013657984        10.5730480824629     
 Ar     4.08992423327782       -2.00850424827988        9.63570479533125     
 Ar     14.6660200866878       -8.57920230381516        18.6426266424536     
 Ar     13.7138121972980      -0.358709470051391        8.46443111624972     
 Ar     18.2065606702052       -7.01462311401517        21.0114091185902     
 Ar    -6.65121935702062        1.49356278110318        20.6354475761263     
